# Graphene Stone-Wales (No Symmetry)
data_graphene_supercell
_chemical_formula_sum 'C200'
_chemical_formula_structural 'C'
_cell_length_a 24.6
_cell_length_b 24.6
_cell_length_c 15.0000
_cell_angle_alpha 90.0000
_cell_angle_beta 90.0000
_cell_angle_gamma 120.0000
_symmetry_space_group_name_H-M 'P1'
_symmetry_Int_Tables_number 1

loop_
_atom_site_label
_atom_site_type_symbol
_atom_site_fract_x
_atom_site_fract_y
_atom_site_fract_z
_atom_site_occupancy

C1 C 0.03333333333333333, 0.06666666666666667, 0.5, 1.0
C2 C 0.06666666666666667, 0.03333333333333333, 0.5, 1.0
C3 C 0.03333333333333333, 0.16666666666666666, 0.5, 1.0
C4 C 0.06666666666666667, 0.13333333333333333, 0.5, 1.0
C5 C 0.03333333333333333, 0.26666666666666666, 0.5, 1.0
C6 C 0.06666666666666667, 0.23333333333333334, 0.5, 1.0
C7 C 0.03333333333333333, 0.36666666666666664, 0.5, 1.0
C8 C 0.06666666666666667, 0.33333333333333337, 0.5, 1.0
C9 C 0.03333333333333333, 0.4666666666666667, 0.5, 1.0
C10 C 0.06666666666666667, 0.4333333333333333, 0.5, 1.0
C11 C 0.03333333333333333, 0.5666666666666667, 0.5, 1.0
C12 C 0.06666666666666667, 0.5333333333333333, 0.5, 1.0
C13 C 0.03333333333333333, 0.6666666666666667, 0.5, 1.0
C14 C 0.06666666666666667, 0.6333333333333333, 0.5, 1.0
C15 C 0.03333333333333333, 0.7666666666666667, 0.5, 1.0
C16 C 0.06666666666666667, 0.7333333333333333, 0.5, 1.0
C17 C 0.03333333333333333, 0.8666666666666666, 0.5, 1.0
C18 C 0.06666666666666667, 0.8333333333333334, 0.5, 1.0
C19 C 0.03333333333333333, 0.9666666666666666, 0.5, 1.0
C20 C 0.06666666666666667, 0.9333333333333333, 0.5, 1.0
C21 C 0.13333333333333333, 0.06666666666666667, 0.5, 1.0
C22 C 0.16666666666666666, 0.03333333333333333, 0.5, 1.0
C23 C 0.13333333333333333, 0.16666666666666666, 0.5, 1.0
C24 C 0.16666666666666666, 0.13333333333333333, 0.5, 1.0
C25 C 0.13333333333333333, 0.26666666666666666, 0.5, 1.0
C26 C 0.16666666666666666, 0.23333333333333334, 0.5, 1.0
C27 C 0.13333333333333333, 0.36666666666666664, 0.5, 1.0
C28 C 0.16666666666666666, 0.33333333333333337, 0.5, 1.0
C29 C 0.13333333333333333, 0.4666666666666667, 0.5, 1.0
C30 C 0.16666666666666666, 0.4333333333333333, 0.5, 1.0
C31 C 0.13333333333333333, 0.5666666666666667, 0.5, 1.0
C32 C 0.16666666666666666, 0.5333333333333333, 0.5, 1.0
C33 C 0.13333333333333333, 0.6666666666666667, 0.5, 1.0
C34 C 0.16666666666666666, 0.6333333333333333, 0.5, 1.0
C35 C 0.13333333333333333, 0.7666666666666667, 0.5, 1.0
C36 C 0.16666666666666666, 0.7333333333333333, 0.5, 1.0
C37 C 0.13333333333333333, 0.8666666666666666, 0.5, 1.0
C38 C 0.16666666666666666, 0.8333333333333334, 0.5, 1.0
C39 C 0.13333333333333333, 0.9666666666666666, 0.5, 1.0
C40 C 0.16666666666666666, 0.9333333333333333, 0.5, 1.0
C41 C 0.23333333333333334, 0.06666666666666667, 0.5, 1.0
C42 C 0.26666666666666666, 0.03333333333333333, 0.5, 1.0
C43 C 0.23333333333333334, 0.16666666666666666, 0.5, 1.0
C44 C 0.26666666666666666, 0.13333333333333333, 0.5, 1.0
C45 C 0.23333333333333334, 0.26666666666666666, 0.5, 1.0
C46 C 0.26666666666666666, 0.23333333333333334, 0.5, 1.0
C47 C 0.23333333333333334, 0.36666666666666664, 0.5, 1.0
C48 C 0.26666666666666666, 0.33333333333333337, 0.5, 1.0
C49 C 0.23333333333333334, 0.4666666666666667, 0.5, 1.0
C50 C 0.26666666666666666, 0.4333333333333333, 0.5, 1.0
C51 C 0.23333333333333334, 0.5666666666666667, 0.5, 1.0
C52 C 0.26666666666666666, 0.5333333333333333, 0.5, 1.0
C53 C 0.23333333333333334, 0.6666666666666667, 0.5, 1.0
C54 C 0.26666666666666666, 0.6333333333333333, 0.5, 1.0
C55 C 0.23333333333333334, 0.7666666666666667, 0.5, 1.0
C56 C 0.26666666666666666, 0.7333333333333333, 0.5, 1.0
C57 C 0.23333333333333334, 0.8666666666666666, 0.5, 1.0
C58 C 0.26666666666666666, 0.8333333333333334, 0.5, 1.0
C59 C 0.23333333333333334, 0.9666666666666666, 0.5, 1.0
C60 C 0.26666666666666666, 0.9333333333333333, 0.5, 1.0
C61 C 0.33333333333333337, 0.06666666666666667, 0.5, 1.0
C62 C 0.36666666666666664, 0.03333333333333333, 0.5, 1.0
C63 C 0.33333333333333337, 0.16666666666666666, 0.5, 1.0
C64 C 0.36666666666666664, 0.13333333333333333, 0.5, 1.0
C65 C 0.33333333333333337, 0.26666666666666666, 0.5, 1.0
C66 C 0.36666666666666664, 0.23333333333333334, 0.5, 1.0
C67 C 0.33333333333333337, 0.36666666666666664, 0.5, 1.0
C68 C 0.36666666666666664, 0.33333333333333337, 0.5, 1.0
C69 C 0.33333333333333337, 0.4666666666666667, 0.5, 1.0
C70 C 0.36666666666666664, 0.4333333333333333, 0.5, 1.0
C71 C 0.33333333333333337, 0.5666666666666667, 0.5, 1.0
C72 C 0.36666666666666664, 0.5333333333333333, 0.5, 1.0
C73 C 0.33333333333333337, 0.6666666666666667, 0.5, 1.0
C74 C 0.36666666666666664, 0.6333333333333333, 0.5, 1.0
C75 C 0.33333333333333337, 0.7666666666666667, 0.5, 1.0
C76 C 0.36666666666666664, 0.7333333333333333, 0.5, 1.0
C77 C 0.33333333333333337, 0.8666666666666666, 0.5, 1.0
C78 C 0.36666666666666664, 0.8333333333333334, 0.5, 1.0
C79 C 0.33333333333333337, 0.9666666666666666, 0.5, 1.0
C80 C 0.36666666666666664, 0.9333333333333333, 0.5, 1.0
C81 C 0.4333333333333333, 0.06666666666666667, 0.5, 1.0
C82 C 0.4666666666666667, 0.03333333333333333, 0.5, 1.0
C83 C 0.4333333333333333, 0.16666666666666666, 0.5, 1.0
C84 C 0.4666666666666667, 0.13333333333333333, 0.5, 1.0
C85 C 0.4333333333333333, 0.26666666666666666, 0.5, 1.0
C86 C 0.4666666666666667, 0.23333333333333334, 0.5, 1.0
C87 C 0.4333333333333333, 0.36666666666666664, 0.5, 1.0
C88 C 0.4666666666666667, 0.33333333333333337, 0.5, 1.0
C89 C 0.4211324865405187, 0.4211324865405187, 0.5, 1.0
C90 C 0.4788675134594813, 0.4788675134594813, 0.5, 1.0
C91 C 0.4333333333333333, 0.5666666666666667, 0.5, 1.0
C92 C 0.4666666666666667, 0.5333333333333333, 0.5, 1.0
C93 C 0.4333333333333333, 0.6666666666666667, 0.5, 1.0
C94 C 0.4666666666666667, 0.6333333333333333, 0.5, 1.0
C95 C 0.4333333333333333, 0.7666666666666667, 0.5, 1.0
C96 C 0.4666666666666667, 0.7333333333333333, 0.5, 1.0
C97 C 0.4333333333333333, 0.8666666666666666, 0.5, 1.0
C98 C 0.4666666666666667, 0.8333333333333334, 0.5, 1.0
C99 C 0.4333333333333333, 0.9666666666666666, 0.5, 1.0
C100 C 0.4666666666666667, 0.9333333333333333, 0.5, 1.0
C101 C 0.5333333333333333, 0.06666666666666667, 0.5, 1.0
C102 C 0.5666666666666667, 0.03333333333333333, 0.5, 1.0
C103 C 0.5333333333333333, 0.16666666666666666, 0.5, 1.0
C104 C 0.5666666666666667, 0.13333333333333333, 0.5, 1.0
C105 C 0.5333333333333333, 0.26666666666666666, 0.5, 1.0
C106 C 0.5666666666666667, 0.23333333333333334, 0.5, 1.0
C107 C 0.5333333333333333, 0.36666666666666664, 0.5, 1.0
C108 C 0.5666666666666667, 0.33333333333333337, 0.5, 1.0
C109 C 0.5333333333333333, 0.4666666666666667, 0.5, 1.0
C110 C 0.5666666666666667, 0.4333333333333333, 0.5, 1.0
C111 C 0.5333333333333333, 0.5666666666666667, 0.5, 1.0
C112 C 0.5666666666666667, 0.5333333333333333, 0.5, 1.0
C113 C 0.5333333333333333, 0.6666666666666667, 0.5, 1.0
C114 C 0.5666666666666667, 0.6333333333333333, 0.5, 1.0
C115 C 0.5333333333333333, 0.7666666666666667, 0.5, 1.0
C116 C 0.5666666666666667, 0.7333333333333333, 0.5, 1.0
C117 C 0.5333333333333333, 0.8666666666666666, 0.5, 1.0
C118 C 0.5666666666666667, 0.8333333333333334, 0.5, 1.0
C119 C 0.5333333333333333, 0.9666666666666666, 0.5, 1.0
C120 C 0.5666666666666667, 0.9333333333333333, 0.5, 1.0
C121 C 0.6333333333333333, 0.06666666666666667, 0.5, 1.0
C122 C 0.6666666666666667, 0.03333333333333333, 0.5, 1.0
C123 C 0.6333333333333333, 0.16666666666666666, 0.5, 1.0
C124 C 0.6666666666666667, 0.13333333333333333, 0.5, 1.0
C125 C 0.6333333333333333, 0.26666666666666666, 0.5, 1.0
C126 C 0.6666666666666667, 0.23333333333333334, 0.5, 1.0
C127 C 0.6333333333333333, 0.36666666666666664, 0.5, 1.0
C128 C 0.6666666666666667, 0.33333333333333337, 0.5, 1.0
C129 C 0.6333333333333333, 0.4666666666666667, 0.5, 1.0
C130 C 0.6666666666666667, 0.4333333333333333, 0.5, 1.0
C131 C 0.6333333333333333, 0.5666666666666667, 0.5, 1.0
C132 C 0.6666666666666667, 0.5333333333333333, 0.5, 1.0
C133 C 0.6333333333333333, 0.6666666666666667, 0.5, 1.0
C134 C 0.6666666666666667, 0.6333333333333333, 0.5, 1.0
C135 C 0.6333333333333333, 0.7666666666666667, 0.5, 1.0
C136 C 0.6666666666666667, 0.7333333333333333, 0.5, 1.0
C137 C 0.6333333333333333, 0.8666666666666666, 0.5, 1.0
C138 C 0.6666666666666667, 0.8333333333333334, 0.5, 1.0
C139 C 0.6333333333333333, 0.9666666666666666, 0.5, 1.0
C140 C 0.6666666666666667, 0.9333333333333333, 0.5, 1.0
C141 C 0.7333333333333333, 0.06666666666666667, 0.5, 1.0
C142 C 0.7666666666666667, 0.03333333333333333, 0.5, 1.0
C143 C 0.7333333333333333, 0.16666666666666666, 0.5, 1.0
C144 C 0.7666666666666667, 0.13333333333333333, 0.5, 1.0
C145 C 0.7333333333333333, 0.26666666666666666, 0.5, 1.0
C146 C 0.7666666666666667, 0.23333333333333334, 0.5, 1.0
C147 C 0.7333333333333333, 0.36666666666666664, 0.5, 1.0
C148 C 0.7666666666666667, 0.33333333333333337, 0.5, 1.0
C149 C 0.7333333333333333, 0.4666666666666667, 0.5, 1.0
C150 C 0.7666666666666667, 0.4333333333333333, 0.5, 1.0
C151 C 0.7333333333333333, 0.5666666666666667, 0.5, 1.0
C152 C 0.7666666666666667, 0.5333333333333333, 0.5, 1.0
C153 C 0.7333333333333333, 0.6666666666666667, 0.5, 1.0
C154 C 0.7666666666666667, 0.6333333333333333, 0.5, 1.0
C155 C 0.7333333333333333, 0.7666666666666667, 0.5, 1.0
C156 C 0.7666666666666667, 0.7333333333333333, 0.5, 1.0
C157 C 0.7333333333333333, 0.8666666666666666, 0.5, 1.0
C158 C 0.7666666666666667, 0.8333333333333334, 0.5, 1.0
C159 C 0.7333333333333333, 0.9666666666666666, 0.5, 1.0
C160 C 0.7666666666666667, 0.9333333333333333, 0.5, 1.0
C161 C 0.8333333333333334, 0.06666666666666667, 0.5, 1.0
C162 C 0.8666666666666666, 0.03333333333333333, 0.5, 1.0
C163 C 0.8333333333333334, 0.16666666666666666, 0.5, 1.0
C164 C 0.8666666666666666, 0.13333333333333333, 0.5, 1.0
C165 C 0.8333333333333334, 0.26666666666666666, 0.5, 1.0
C166 C 0.8666666666666666, 0.23333333333333334, 0.5, 1.0
C167 C 0.8333333333333334, 0.36666666666666664, 0.5, 1.0
C168 C 0.8666666666666666, 0.33333333333333337, 0.5, 1.0
C169 C 0.8333333333333334, 0.4666666666666667, 0.5, 1.0
C170 C 0.8666666666666666, 0.4333333333333333, 0.5, 1.0
C171 C 0.8333333333333334, 0.5666666666666667, 0.5, 1.0
C172 C 0.8666666666666666, 0.5333333333333333, 0.5, 1.0
C173 C 0.8333333333333334, 0.6666666666666667, 0.5, 1.0
C174 C 0.8666666666666666, 0.6333333333333333, 0.5, 1.0
C175 C 0.8333333333333334, 0.7666666666666667, 0.5, 1.0
C176 C 0.8666666666666666, 0.7333333333333333, 0.5, 1.0
C177 C 0.8333333333333334, 0.8666666666666666, 0.5, 1.0
C178 C 0.8666666666666666, 0.8333333333333334, 0.5, 1.0
C179 C 0.8333333333333334, 0.9666666666666666, 0.5, 1.0
C180 C 0.8666666666666666, 0.9333333333333333, 0.5, 1.0
C181 C 0.9333333333333333, 0.06666666666666667, 0.5, 1.0
C182 C 0.9666666666666666, 0.03333333333333333, 0.5, 1.0
C183 C 0.9333333333333333, 0.16666666666666666, 0.5, 1.0
C184 C 0.9666666666666666, 0.13333333333333333, 0.5, 1.0
C185 C 0.9333333333333333, 0.26666666666666666, 0.5, 1.0
C186 C 0.9666666666666666, 0.23333333333333334, 0.5, 1.0
C187 C 0.9333333333333333, 0.36666666666666664, 0.5, 1.0
C188 C 0.9666666666666666, 0.33333333333333337, 0.5, 1.0
C189 C 0.9333333333333333, 0.4666666666666667, 0.5, 1.0
C190 C 0.9666666666666666, 0.4333333333333333, 0.5, 1.0
C191 C 0.9333333333333333, 0.5666666666666667, 0.5, 1.0
C192 C 0.9666666666666666, 0.5333333333333333, 0.5, 1.0
C193 C 0.9333333333333333, 0.6666666666666667, 0.5, 1.0
C194 C 0.9666666666666666, 0.6333333333333333, 0.5, 1.0
C195 C 0.9333333333333333, 0.7666666666666667, 0.5, 1.0
C196 C 0.9666666666666666, 0.7333333333333333, 0.5, 1.0
C197 C 0.9333333333333333, 0.8666666666666666, 0.5, 1.0
C198 C 0.9666666666666666, 0.8333333333333334, 0.5, 1.0
C199 C 0.9333333333333333, 0.9666666666666666, 0.5, 1.0
C200 C 0.9666666666666666, 0.9333333333333333, 0.5, 1.0
